/*--------------------------------*- C++ -*----------------------------------*\
| =========                 |                                                 |
| \\      /  F ield         | OpenFOAM: The Open Source CFD Toolbox           |
|  \\    /   O peration     | Version:  2012                                  |
|   \\  /    A nd           | Website:  www.openfoam.com                      |
|    \\/     M anipulation  |                                                 |
\*---------------------------------------------------------------------------*/
FoamFile
{
    version     2.0;
    format      ascii;
    class       polyBoundaryMesh;
    location    "constant/solid/polyMesh";
    object      boundary;
}
// * * * * * * * * * * * * * * * * * * * * * * * * * * * * * * * * * * * * * //

6
(
    Sym
    {
        type            wall;
        inGroups        1(wall);
        nFaces          6;
        startFace       17393;
    }
    bottom
    {
        type            wall;
        inGroups        1(wall);
        nFaces          218;
        startFace       17399;
    }
    outside
    {
        type            wall;
        inGroups        1(wall);
        nFaces          1224;
        startFace       17617;
    }
    solid_to_fluid
    {
        type            mappedWall;
        inGroups        2(wall mappedPatch);
        nFaces          2190;
        startFace       18841;
        sampleMode      nearestPatchFace;
        sampleRegion    fluid;
        samplePatch     fluid_to_solid;
    }
    bottomEmptyFaces
    {
        type            empty;
        inGroups        1(empty);
        nFaces          9606;
        startFace       21031;
    }
    topEmptyFaces
    {
        type            empty;
        inGroups        1(empty);
        nFaces          9606;
        startFace       30637;
    }
)

// ************************************************************************* //
