/*--------------------------------*- C++ -*----------------------------------*\
| =========                 |                                                 |
| \\      /  F ield         | OpenFOAM: The Open Source CFD Toolbox           |
|  \\    /   O peration     | Version:  2012                                  |
|   \\  /    A nd           | Website:  www.openfoam.com                      |
|    \\/     M anipulation  |                                                 |
\*---------------------------------------------------------------------------*/
FoamFile
{
    version     2.0;
    format      ascii;
    class       dictionary;
    location    "constant/polyMesh";
    object      meshMetaDict;
}
// * * * * * * * * * * * * * * * * * * * * * * * * * * * * * * * * * * * * * //

surfaceFile     "coffee_pot_solid.fms";

surfaceMeta
{
    nPoints         1350;
    nFacets         1350;
    nPatches        4;
    nFeatureEdges   8;
    patches
    {
        outside
        {
            type            wall;
            nFacets         436;
        }
        solid_to_fluid
        {
            type            wall;
            nFacets         824;
        }
        Sym
        {
            type            wall;
            nFacets         2;
        }
        bottom
        {
            type            wall;
            nFacets         88;
        }
    }
    pointSubsets
    {
    }
    facetSubsets
    {
    }
    featureEdgeSubsets
    {
        feature_extruded
        {
            nEdges          8;
        }
    }
}
