/*--------------------------------*- C++ -*----------------------------------*\
| =========                 |                                                 |
| \\      /  F ield         | OpenFOAM: The Open Source CFD Toolbox           |
|  \\    /   O peration     | Version:  2.3.0                                 |
|   \\  /    A nd           | Web:      www.OpenFOAM.org                      |
|    \\/     M anipulation  |                                                 |
\*---------------------------------------------------------------------------*/
FoamFile
{
    version     2.0;
    format      ascii;
    class       dictionary;
    location    "constant";
    object      thermophysicalProperties;
}
// * * * * * * * * * * * * * * * * * * * * * * * * * * * * * * * * * * * * * //

phases (water air);

pMin            10000;

sigma            0.0;//0.0089004;

TMin             60.0;

TMax            500.0;

water
{
    type pureMovingPhaseModel;
}

air
{
    type pureMovingPhaseModel;
}

surfaceForces
{
  sigma 0.0;
  curvatureModel gradAlpha;
  accelerationModel gravity;
  deltaFunctionModel alphaCSF;
}


// ************************************************************************* //
