/*--------------------------------*- C++ -*----------------------------------*\
| =========                 |                                                 |
| \\      /  F ield         | OpenFOAM: The Open Source CFD Toolbox           |
|  \\    /   O peration     | Version:  2012                                  |
|   \\  /    A nd           | Website:  www.openfoam.com                      |
|    \\/     M anipulation  |                                                 |
\*---------------------------------------------------------------------------*/
FoamFile
{
    version     2.0;
    format      ascii;
    class       dictionary;
    location    "constant/polyMesh";
    object      meshMetaDict;
}
// * * * * * * * * * * * * * * * * * * * * * * * * * * * * * * * * * * * * * //

surfaceFile     "coffee_pot_fluid.fms";

surfaceMeta
{
    nPoints         1222;
    nFacets         1222;
    nPatches        3;
    nFeatureEdges   9;
    patches
    {
        top
        {
            type            wall;
            nFacets         120;
        }
        fluid_to_solid
        {
            type            wall;
            nFacets         824;
        }
        Sym
        {
            type            wall;
            nFacets         278;
        }
    }
    pointSubsets
    {
    }
    facetSubsets
    {
    }
    featureEdgeSubsets
    {
        feature_extruded
        {
            nEdges          9;
        }
    }
}
